<?xml version="1.0" encoding="UTF-8"?>

<!-- generated on 11/17/21 16:09:27 by Eclipse SUMO duarouter Version 1.6.0
<configuration xmlns:xsi="http://www.w3.org/2001/XMLSchema-instance" xsi:noNamespaceSchemaLocation="http://sumo.dlr.de/xsd/duarouterConfiguration.xsd">

    <input>
        <net-file value="map\Map4_Tsinghua_Intersection\grid-map.net.xml"/>
        <route-files value="navigation\trips.xml"/>
    </input>

    <output>
        <output-file value="navigation\result.rou.xml"/>
        <alternatives-output value="navigation\result.rou.alt.xml"/>
    </output>

</configuration>
-->

<routes xmlns:xsi="http://www.w3.org/2001/XMLSchema-instance" xsi:noNamespaceSchemaLocation="http://sumo.dlr.de/xsd/routes_file.xsd">
    <vehicle id="0" depart="0.00">
        <route edges="gneE664 gneE665 gneE665.103 gneE665.254 gneE665.254.65 gneE837 gneE837.181 gneE837.196 gneE469.241 gneE461 gneE461.99 gneE461.204 gneE464 chengfu_out"/>
    </vehicle>
</routes>
