<?xml version="1.0" encoding="UTF-8"?>

<!-- generated on 04/12/21 09:32:37 by Eclipse SUMO netedit Version 1.6.0
<configuration xmlns:xsi="http://www.w3.org/2001/XMLSchema-instance" xsi:noNamespaceSchemaLocation="http://sumo.dlr.de/xsd/netconvertConfiguration.xsd">

    <input>
        <sumo-net-file value="D:\codecode\AA_test\0401LasVSim\LasVSim-gui%200.2.1.210315_base_alpha\Map\Map4_Tsinghua_Intersection\grid-map.net.xml"/>
    </input>

    <output>
        <output-file value="D:\codecode\AA_test\0401LasVSim\LasVSim-gui%200.2.1.210315_base_alpha\Map\Map4_Tsinghua_Intersection\grid-map.net.xml"/>
    </output>

    <processing>
        <geometry.min-radius.fix.railways value="false"/>
        <geometry.max-grade.fix value="false"/>
        <offset.disable-normalization value="true"/>
        <lefthand value="false"/>
    </processing>

    <junctions>
        <no-internal-links value="false"/>
        <no-turnarounds value="true"/>
        <junctions.corner-detail value="5"/>
        <junctions.limit-turn-speed value="5.5"/>
        <rectangular-lane-cut value="false"/>
    </junctions>

    <pedestrian>
        <walkingareas value="false"/>
    </pedestrian>

    <report>
        <aggregate-warnings value="5"/>
    </report>

</configuration>
-->

<net version="1.6" junctionCornerDetail="5" limitTurnSpeed="5.50" xmlns:xsi="http://www.w3.org/2001/XMLSchema-instance" xsi:noNamespaceSchemaLocation="http://sumo.dlr.de/xsd/net_file.xsd">

    <location netOffset="-437203.78,-4418435.12" convBoundary="3628.27,0.00,21973.65,13250.21" origBoundary="116.264254,39.914284,116.521519,40.034403" projParameter="+proj=utm +zone=50 +ellps=WGS84 +datum=WGS84 +units=m +no_defs"/>

    <type id="highway.bridleway" priority="1" numLanes="1" speed="2.78" allow="pedestrian" oneway="1" width="2.00"/>
    <type id="highway.bus_guideway" priority="1" numLanes="1" speed="27.78" allow="bus" oneway="1"/>
    <type id="highway.cycleway" priority="1" numLanes="1" speed="8.33" allow="bicycle" oneway="1" width="1.00"/>
    <type id="highway.footway" priority="1" numLanes="1" speed="2.78" allow="pedestrian" oneway="1" width="2.00"/>
    <type id="highway.ford" priority="1" numLanes="1" speed="2.78" allow="army" oneway="1"/>
    <type id="highway.living_street" priority="2" numLanes="1" speed="2.78" disallow="tram rail_urban rail rail_electric ship" oneway="1"/>
    <type id="highway.motorway" priority="14" numLanes="2" speed="39.44" allow="private emergency authority army vip passenger hov taxi bus coach delivery truck trailer motorcycle evehicle custom1 custom2" oneway="1"/>
    <type id="highway.motorway_link" priority="9" numLanes="1" speed="22.22" allow="private emergency authority army vip passenger hov taxi bus coach delivery truck trailer motorcycle evehicle custom1 custom2" oneway="1"/>
    <type id="highway.path" priority="1" numLanes="1" speed="2.78" allow="pedestrian bicycle" oneway="1" width="2.00"/>
    <type id="highway.pedestrian" priority="1" numLanes="1" speed="2.78" allow="pedestrian" oneway="1" width="2.00"/>
    <type id="highway.primary" priority="12" numLanes="2" speed="27.78" disallow="tram rail_urban rail rail_electric ship" oneway="1"/>
    <type id="highway.primary_link" priority="7" numLanes="1" speed="22.22" disallow="tram rail_urban rail rail_electric ship" oneway="1"/>
    <type id="highway.raceway" priority="15" numLanes="2" speed="83.33" allow="vip" oneway="1"/>
    <type id="highway.residential" priority="3" numLanes="1" speed="13.89" disallow="tram rail_urban rail rail_electric ship" oneway="1"/>
    <type id="highway.secondary" priority="11" numLanes="2" speed="27.78" disallow="tram rail_urban rail rail_electric ship" oneway="1"/>
    <type id="highway.secondary_link" priority="6" numLanes="1" speed="22.22" disallow="tram rail_urban rail rail_electric ship" oneway="1"/>
    <type id="highway.service" priority="1" numLanes="1" speed="5.56" allow="pedestrian delivery bicycle" oneway="1"/>
    <type id="highway.stairs" priority="1" numLanes="1" speed="1.39" allow="pedestrian" oneway="1" width="2.00"/>
    <type id="highway.step" priority="1" numLanes="1" speed="1.39" allow="pedestrian" oneway="1" width="2.00"/>
    <type id="highway.steps" priority="1" numLanes="1" speed="1.39" allow="pedestrian" oneway="1" width="2.00"/>
    <type id="highway.tertiary" priority="10" numLanes="1" speed="22.22" disallow="tram rail_urban rail rail_electric ship" oneway="1"/>
    <type id="highway.tertiary_link" priority="5" numLanes="1" speed="22.22" disallow="tram rail_urban rail rail_electric ship" oneway="1"/>
    <type id="highway.track" priority="1" numLanes="1" speed="5.56" disallow="tram rail_urban rail rail_electric ship" oneway="1"/>
    <type id="highway.trunk" priority="13" numLanes="2" speed="27.78" disallow="pedestrian bicycle tram rail_urban rail rail_electric ship" oneway="1"/>
    <type id="highway.trunk_link" priority="8" numLanes="1" speed="22.22" disallow="pedestrian bicycle tram rail_urban rail rail_electric ship" oneway="1"/>
    <type id="highway.unclassified" priority="4" numLanes="1" speed="13.89" disallow="tram rail_urban rail rail_electric ship" oneway="1"/>
    <type id="highway.unsurfaced" priority="1" numLanes="1" speed="8.33" disallow="tram rail_urban rail rail_electric ship" oneway="1"/>
    <type id="railway.highspeed" priority="21" numLanes="1" speed="69.44" allow="rail_electric" oneway="1"/>
    <type id="railway.light_rail" priority="19" numLanes="1" speed="27.78" allow="rail_urban" oneway="1"/>
    <type id="railway.preserved" priority="16" numLanes="1" speed="27.78" allow="rail" oneway="1"/>
    <type id="railway.rail" priority="20" numLanes="1" speed="44.44" allow="rail" oneway="1"/>
    <type id="railway.subway" priority="18" numLanes="1" speed="27.78" allow="rail_urban" oneway="1"/>
    <type id="railway.tram" priority="17" numLanes="1" speed="13.89" allow="tram" oneway="1"/>

    <edge id=":1422005419_0" function="internal">
        <lane id=":1422005419_0_0" index="0" allow="pedestrian" speed="13.89" length="9.29" width="3.00" shape="5672.84,8725.61 5671.81,8723.12 5669.95,8721.88 5668.10,8720.63 5667.07,8718.14"/>
        <lane id=":1422005419_0_1" index="1" allow="bicycle" speed="13.89" length="9.29" width="3.00" shape="5675.93,8725.30 5674.87,8722.81 5672.99,8721.57 5671.10,8720.34 5670.05,8717.84"/>
        <lane id=":1422005419_0_2" index="2" disallow="pedestrian" speed="13.89" length="9.29" width="2.80" shape="5679.11,8724.98 5678.01,8722.47 5676.02,8721.27 5674.04,8720.06 5672.94,8717.55"/>
        <lane id=":1422005419_0_3" index="3" disallow="pedestrian" speed="13.89" length="9.29" width="2.80" shape="5679.11,8724.98 5678.46,8722.60 5677.42,8721.13 5676.37,8719.66 5675.72,8717.28"/>
        <lane id=":1422005419_0_4" index="4" disallow="pedestrian" speed="13.89" length="9.29" width="2.80" shape="5679.11,8724.98 5678.51,8717.00"/>
    </edge>
    <edge id=":1422005419_5" function="internal">
        <lane id=":1422005419_5_0" index="0" allow="pedestrian" speed="13.89" length="7.99" width="3.00" shape="5687.76,8716.08 5688.56,8724.02"/>
        <lane id=":1422005419_5_1" index="1" allow="bicycle" speed="13.89" length="7.99" shape="5684.68,8716.38 5685.48,8724.33"/>
        <lane id=":1422005419_5_2" index="2" disallow="pedestrian" speed="13.89" length="7.99" shape="5681.50,8716.70 5682.29,8724.66"/>
    </edge>
    <edge id=":1422005419_w0" function="walkingarea">
        <lane id=":1422005419_w0_0" index="0" allow="pedestrian" speed="1.00" length="9.45" width="3.00" shape="5668.56,8717.99 5665.57,8718.29 5671.35,8725.76 5674.34,8725.46 5673.77,8723.60 5672.73,8722.48 5671.44,8721.73 5670.16,8720.97 5669.12,8719.85"/>
    </edge>
    <edge id=":1422005419_w1" function="walkingarea">
        <lane id=":1422005419_w1_0" index="0" allow="pedestrian" speed="1.00" length="7.98" width="3.00" shape="5687.07,8724.17 5690.06,8723.87 5689.26,8715.93 5686.27,8716.23"/>
    </edge>
    <edge id=":17_0" function="internal">
        <lane id=":17_0_0" index="0" allow="pedestrian" speed="13.89" length="8.70" width="2.00" shape="4855.95,8385.68 4856.56,8383.18 4857.90,8381.68 4859.24,8380.18 4859.85,8377.68"/>
        <lane id=":17_0_1" index="1" allow="bicycle" speed="13.89" length="8.70" width="2.00" shape="4858.45,8385.68 4858.98,8383.21 4860.15,8381.68 4861.32,8380.15 4861.85,8377.68"/>
        <lane id=":17_0_2" index="2" disallow="pedestrian" speed="13.89" length="8.70" width="3.50" shape="4861.55,8385.68 4862.03,8383.23 4863.07,8381.68 4864.12,8380.13 4864.60,8377.68"/>
        <lane id=":17_0_3" index="3" disallow="pedestrian" speed="13.89" length="8.70" width="3.50" shape="4864.75,8385.68 4864.60,8377.68"/>
    </edge>
    <edge id=":17_4" function="internal">
        <lane id=":17_4_0" index="0" allow="pedestrian" speed="13.89" length="8.70" width="2.00" shape="4872.85,8377.68 4873.46,8380.18 4874.80,8381.68 4876.14,8383.18 4876.75,8385.68"/>
        <lane id=":17_4_1" index="1" allow="bicycle" speed="13.89" length="8.70" width="3.00" shape="4870.85,8377.68 4871.38,8380.15 4872.55,8381.68 4873.72,8383.21 4874.25,8385.68"/>
        <lane id=":17_4_2" index="2" disallow="pedestrian" speed="13.89" length="8.70" shape="4868.10,8377.68 4868.58,8380.13 4869.63,8381.68 4870.67,8383.23 4871.15,8385.68"/>
        <lane id=":17_4_3" index="3" disallow="pedestrian" speed="13.89" length="8.70" shape="4868.10,8377.68 4867.95,8385.68"/>
    </edge>
    <edge id=":17_w0" function="walkingarea">
        <lane id=":17_w0_0" index="0" allow="pedestrian" speed="1.00" length="8.90" width="2.00" shape="4860.85,8377.68 4858.85,8377.68 4854.95,8385.68 4856.95,8385.68 4857.24,8383.85 4857.96,8382.62 4858.90,8381.68 4859.84,8380.74 4860.56,8379.51"/>
    </edge>
    <edge id=":17_w1" function="walkingarea">
        <lane id=":17_w1_0" index="0" allow="pedestrian" speed="1.00" length="8.90" width="2.00" shape="4875.75,8385.68 4877.75,8385.68 4873.85,8377.68 4871.85,8377.68 4872.14,8379.51 4872.86,8380.74 4873.80,8381.68 4874.74,8382.62 4875.46,8383.85"/>
    </edge>
    <edge id=":371157793_0" function="internal">
        <lane id=":371157793_0_0" index="0" allow="pedestrian" speed="4.98" length="5.10" width="3.00" shape="4876.75,8544.17 4876.90,8545.82 4877.36,8547.01 4878.12,8547.75 4879.19,8548.02"/>
    </edge>
    <edge id=":371157793_1" function="internal">
        <lane id=":371157793_1_0" index="0" allow="bicycle" speed="6.56" length="9.00" width="2.00" shape="4874.25,8544.17 4874.55,8546.88 4875.46,8548.84 4876.98,8550.06 4879.09,8550.52"/>
    </edge>
    <edge id=":371157793_2" function="internal">
        <lane id=":371157793_2_0" index="0" disallow="pedestrian" speed="7.91" length="13.45" shape="4871.15,8544.17 4871.64,8547.97 4873.11,8550.73 4875.56,8552.45 4878.99,8553.12"/>
    </edge>
    <edge id=":371157793_3" function="internal">
        <lane id=":371157793_3_0" index="0" disallow="pedestrian" speed="9.37" length="19.27" shape="4867.95,8544.17 4868.63,8549.77 4870.67,8553.82 4874.07,8556.34 4878.83,8557.32"/>
    </edge>
    <edge id=":371157793_4" function="internal">
        <lane id=":371157793_4_0" index="0" allow="pedestrian" speed="4.74" length="4.47" width="2.00" shape="4853.40,8547.12 4854.52,8546.97 4855.31,8546.43 4855.79,8545.49 4855.95,8544.17"/>
    </edge>
    <edge id=":371157793_5" function="internal">
        <lane id=":371157793_5_0" index="0" allow="pedestrian" speed="13.89" length="25.80" width="3.00" shape="4853.40,8547.12 4879.19,8548.02"/>
    </edge>
    <edge id=":371157793_6" function="internal">
        <lane id=":371157793_6_0" index="0" allow="bicycle" speed="6.16" length="3.41" width="3.00" shape="4853.32,8549.62 4855.57,8549.34 4856.54,8548.73"/>
    </edge>
    <edge id=":371157793_7" function="internal">
        <lane id=":371157793_7_0" index="0" allow="bicycle" speed="13.89" length="25.79" width="2.00" shape="4853.32,8549.62 4879.09,8550.52"/>
    </edge>
    <edge id=":371157793_8" function="internal">
        <lane id=":371157793_8_0" index="0" disallow="pedestrian" speed="7.68" length="3.79" shape="4853.24,8552.22 4856.88,8551.82 4856.99,8551.75"/>
    </edge>
    <edge id=":371157793_9" function="internal">
        <lane id=":371157793_9_0" index="0" disallow="pedestrian" speed="13.89" length="25.99" shape="4853.24,8552.22 4878.99,8553.12"/>
        <lane id=":371157793_9_1" index="1" disallow="pedestrian" speed="13.89" length="25.99" shape="4853.24,8552.22 4860.91,8553.12 4866.04,8554.74 4871.17,8556.37 4878.83,8557.32"/>
    </edge>
    <edge id=":371157793_11" function="internal">
        <lane id=":371157793_11_0" index="0" disallow="pedestrian" speed="9.16" length="7.33" shape="4853.11,8556.42 4858.20,8555.79 4860.07,8554.63"/>
    </edge>
    <edge id=":371157793_12" function="internal">
        <lane id=":371157793_12_0" index="0" disallow="pedestrian" speed="13.89" length="25.89" shape="4853.11,8556.42 4860.82,8556.01 4866.05,8554.74 4871.28,8553.48 4878.99,8553.12"/>
        <lane id=":371157793_12_1" index="1" disallow="pedestrian" speed="13.89" length="25.89" shape="4853.11,8556.42 4878.83,8557.32"/>
        <lane id=":371157793_12_2" index="2" disallow="pedestrian" speed="13.89" length="25.89" shape="4853.01,8559.62 4878.71,8560.51"/>
    </edge>
    <edge id=":371157793_15" function="internal">
        <lane id=":371157793_15_0" index="0" allow="bicycle" speed="6.16" length="5.18" width="3.00" shape="4856.54,8548.73 4857.17,8548.34 4858.13,8546.62 4858.45,8544.17"/>
    </edge>
    <edge id=":371157793_16" function="internal">
        <lane id=":371157793_16_0" index="0" disallow="pedestrian" speed="7.68" length="9.50" shape="4856.99,8551.75 4859.47,8550.34 4861.03,8547.79 4861.55,8544.17"/>
    </edge>
    <edge id=":371157793_17" function="internal">
        <lane id=":371157793_17_0" index="0" disallow="pedestrian" speed="9.16" length="12.07" shape="4860.07,8554.63 4861.84,8553.54 4864.02,8549.67 4864.75,8544.17"/>
    </edge>
    <edge id=":371157793_c0" function="crossing" crossingEdges="gneE160 gneE161.534">
        <lane id=":371157793_c0_0" index="0" allow="pedestrian" speed="1.00" length="18.80" width="4.00" shape="4856.95,8546.17 4875.75,8546.17"/>
    </edge>
    <edge id=":371157793_w0" function="walkingarea">
        <lane id=":371157793_w0_0" index="0" allow="pedestrian" speed="1.00" length="3.57" width="4.00" shape="4879.13,8549.52 4879.25,8546.53 4877.75,8544.17 4875.75,8544.17 4875.84,8545.77 4876.13,8547.09 4876.60,8548.12 4877.25,8548.87 4878.10,8549.34"/>
    </edge>
    <edge id=":371157793_w1" function="walkingarea">
        <lane id=":371157793_w1_0" index="0" allow="pedestrian" speed="1.00" length="3.27" width="4.00" shape="4856.95,8544.17 4854.95,8544.17 4853.45,8545.63 4853.36,8548.62 4854.45,8548.53 4855.35,8548.18 4856.05,8547.57 4856.55,8546.70 4856.85,8545.56"/>
    </edge>
    <edge id=":380424589_0" function="internal">
        <lane id=":380424589_0_0" index="0" allow="pedestrian" speed="6.28" length="7.54" width="5.00" shape="5656.15,8608.44 5655.71,8605.76 5655.02,8603.84 5654.07,8602.66 5652.87,8602.24"/>
    </edge>
    <edge id=":380424589_1" function="internal">
        <lane id=":380424589_1_0" index="0" allow="pedestrian" speed="18.06" length="38.26" width="3.00" shape="5656.15,8608.44 5655.49,8596.60 5656.09,8587.92 5657.52,8580.01 5659.37,8570.52"/>
    </edge>
    <edge id=":380424589_2" function="internal">
        <lane id=":380424589_2_0" index="0" allow="bicycle" speed="7.84" length="6.97" width="2.00" shape="5659.13,8608.14 5658.40,8604.10 5657.26,8601.47"/>
    </edge>
    <edge id=":380424589_3" function="internal">
        <lane id=":380424589_3_0" index="0" allow="bicycle" speed="18.06" length="38.02" width="4.00" shape="5659.13,8608.14 5658.57,8596.41 5659.36,8587.82 5660.98,8580.00 5662.92,8570.53"/>
    </edge>
    <edge id=":380424589_4" function="internal">
        <lane id=":380424589_4_0" index="0" allow="bicycle" speed="12.23" length="8.45" width="2.00" shape="5659.13,8608.14 5661.12,8600.08 5661.20,8599.95"/>
    </edge>
    <edge id=":380424589_5" function="internal">
        <lane id=":380424589_5_0" index="0" disallow="pedestrian" speed="8.93" length="12.00" shape="5662.02,8607.85 5661.03,8602.84 5659.22,8599.21 5657.05,8597.38"/>
    </edge>
    <edge id=":380424589_6" function="internal">
        <lane id=":380424589_6_0" index="0" disallow="pedestrian" speed="18.06" length="37.26" shape="5664.80,8607.57 5663.94,8596.09 5664.03,8587.68 5664.95,8579.97 5666.57,8570.54"/>
    </edge>
    <edge id=":380424589_7" function="internal">
        <lane id=":380424589_7_0" index="0" disallow="pedestrian" speed="11.25" length="10.91" shape="5664.80,8607.57 5664.81,8598.18 5665.38,8596.78"/>
    </edge>
    <edge id=":380424589_8" function="internal">
        <lane id=":380424589_8_0" index="0" disallow="pedestrian" speed="10.16" length="21.85" shape="5667.59,8607.30 5667.85,8599.85 5670.34,8594.59 5675.06,8591.51 5677.98,8591.14"/>
    </edge>
    <edge id=":380424589_36" function="internal">
        <lane id=":380424589_36_0" index="0" allow="bicycle" speed="7.84" length="5.28" width="2.00" shape="5657.26,8601.47 5657.14,8601.19 5655.34,8599.40 5652.99,8598.74"/>
    </edge>
    <edge id=":380424589_37" function="internal">
        <lane id=":380424589_37_0" index="0" allow="bicycle" speed="12.23" length="29.45" width="2.00" shape="5661.20,8599.95 5667.03,8590.98 5674.77,8583.59 5682.25,8580.63"/>
    </edge>
    <edge id=":380424589_38" function="internal">
        <lane id=":380424589_38_0" index="0" disallow="pedestrian" speed="8.93" length="4.20" shape="5657.05,8597.38 5656.57,8596.98 5653.09,8596.14"/>
    </edge>
    <edge id=":380424589_39" function="internal">
        <lane id=":380424589_39_0" index="0" disallow="pedestrian" speed="11.25" length="21.07" shape="5665.38,8596.78 5667.37,8591.86 5672.96,8588.35 5682.08,8587.43"/>
    </edge>
    <edge id=":380424589_40" function="internal">
        <lane id=":380424589_40_0" index="0" disallow="pedestrian" speed="10.16" length="4.05" shape="5677.98,8591.14 5682.00,8590.62"/>
    </edge>
    <edge id=":380424589_9" function="internal">
        <lane id=":380424589_9_0" index="0" allow="pedestrian" speed="5.42" length="6.59" width="3.00" shape="5681.68,8603.32 5679.45,8603.46 5677.89,8604.02 5677.03,8604.99 5676.84,8606.38"/>
    </edge>
    <edge id=":380424589_10" function="internal">
        <lane id=":380424589_10_0" index="0" allow="pedestrian" speed="13.89" length="28.83" width="5.00" shape="5681.68,8603.32 5652.87,8602.24"/>
    </edge>
    <edge id=":380424589_11" function="internal">
        <lane id=":380424589_11_0" index="0" allow="bicycle" speed="7.06" length="3.76" shape="5681.76,8600.32 5678.01,8600.64"/>
    </edge>
    <edge id=":380424589_12" function="internal">
        <lane id=":380424589_12_0" index="0" allow="bicycle" speed="13.89" length="28.81" width="2.00" shape="5681.76,8600.32 5652.99,8598.74"/>
    </edge>
    <edge id=":380424589_13" function="internal">
        <lane id=":380424589_13_0" index="0" allow="bicycle" speed="12.04" length="33.50" width="4.00" shape="5681.76,8600.32 5674.85,8596.81 5668.43,8588.63 5663.97,8578.85 5663.39,8574.28"/>
    </edge>
    <edge id=":380424589_14" function="internal">
        <lane id=":380424589_14_0" index="0" disallow="pedestrian" speed="8.57" length="7.42" shape="5681.85,8596.42 5676.51,8596.97 5674.70,8597.93"/>
    </edge>
    <edge id=":380424589_15" function="internal">
        <lane id=":380424589_15_0" index="0" disallow="pedestrian" speed="13.89" length="28.75" shape="5681.85,8596.42 5653.09,8596.14"/>
        <lane id=":380424589_15_1" index="1" disallow="pedestrian" speed="13.89" length="28.75" shape="5681.92,8593.63 5653.20,8592.95"/>
    </edge>
    <edge id=":380424589_17" function="internal">
        <lane id=":380424589_17_0" index="0" disallow="pedestrian" speed="11.42" length="29.66" shape="5681.92,8593.63 5672.66,8591.99 5667.48,8587.63 5665.69,8580.50 5666.23,8574.39"/>
    </edge>
    <edge id=":380424589_41" function="internal">
        <lane id=":380424589_41_0" index="0" allow="bicycle" speed="7.06" length="8.17" shape="5678.01,8600.64 5675.43,8601.80 5674.01,8603.82 5673.76,8606.68"/>
    </edge>
    <edge id=":380424589_42" function="internal">
        <lane id=":380424589_42_0" index="0" allow="bicycle" speed="12.04" length="3.77" width="4.00" shape="5663.39,8574.28 5662.92,8570.53"/>
    </edge>
    <edge id=":380424589_43" function="internal">
        <lane id=":380424589_43_0" index="0" disallow="pedestrian" speed="8.57" length="10.73" shape="5674.70,8597.93 5672.85,8598.91 5670.87,8602.26 5670.58,8607.00"/>
    </edge>
    <edge id=":380424589_44" function="internal">
        <lane id=":380424589_44_0" index="0" disallow="pedestrian" speed="11.42" length="3.86" shape="5666.23,8574.39 5666.57,8570.54"/>
    </edge>
    <edge id=":380424589_18" function="internal">
        <lane id=":380424589_18_0" index="0" allow="pedestrian" speed="6.09" length="8.74" width="3.00" shape="5680.27,8570.60 5679.92,8573.86 5680.14,8576.20 5680.93,8577.63 5682.31,8578.13"/>
    </edge>
    <edge id=":380424589_19" function="internal">
        <lane id=":380424589_19_0" index="0" allow="pedestrian" speed="18.06" length="36.12" width="3.00" shape="5680.27,8570.60 5678.23,8581.56 5676.85,8589.53 5676.32,8596.98 5676.84,8606.38"/>
    </edge>
    <edge id=":380424589_20" function="internal">
        <lane id=":380424589_20_0" index="0" allow="bicycle" speed="7.50" length="7.70" width="2.00" shape="5676.72,8570.58 5676.43,8574.91 5677.25,8578.03 5677.34,8578.12"/>
    </edge>
    <edge id=":380424589_21" function="internal">
        <lane id=":380424589_21_0" index="0" allow="bicycle" speed="18.06" length="36.40" shape="5676.72,8570.58 5674.74,8581.65 5673.52,8589.73 5673.16,8597.25 5673.76,8606.68"/>
    </edge>
    <edge id=":380424589_22" function="internal">
        <lane id=":380424589_22_0" index="0" allow="bicycle" speed="13.54" length="9.18" width="2.00" shape="5676.72,8570.58 5673.33,8578.71 5673.12,8579.01"/>
    </edge>
    <edge id=":380424589_23" function="internal">
        <lane id=":380424589_23_0" index="0" disallow="pedestrian" speed="8.80" length="3.18" shape="5673.07,8570.57 5672.91,8573.74"/>
    </edge>
    <edge id=":380424589_24" function="internal">
        <lane id=":380424589_24_0" index="0" disallow="pedestrian" speed="18.06" length="36.69" shape="5673.07,8570.57 5671.15,8581.75 5670.09,8589.93 5669.90,8597.54 5670.58,8607.00"/>
    </edge>
    <edge id=":380424589_25" function="internal">
        <lane id=":380424589_25_0" index="0" disallow="pedestrian" speed="12.12" length="11.50" shape="5669.83,8570.56 5667.30,8580.52 5666.74,8581.61"/>
    </edge>
    <edge id=":380424589_45" function="internal">
        <lane id=":380424589_45_0" index="0" allow="bicycle" speed="7.50" length="5.72" width="2.00" shape="5677.34,8578.12 5679.19,8579.93 5682.25,8580.63"/>
    </edge>
    <edge id=":380424589_46" function="internal">
        <lane id=":380424589_46_0" index="0" allow="bicycle" speed="13.54" length="28.75" width="2.00" shape="5673.12,8579.01 5666.83,8588.04 5659.35,8595.68 5652.99,8598.74"/>
    </edge>
    <edge id=":380424589_47" function="internal">
        <lane id=":380424589_47_0" index="0" disallow="pedestrian" speed="8.80" length="16.17" shape="5672.91,8573.74 5672.77,8576.44 5674.18,8580.67 5677.31,8583.27 5682.16,8584.23"/>
    </edge>
    <edge id=":380424589_48" function="internal">
        <lane id=":380424589_48_0" index="0" disallow="pedestrian" speed="12.12" length="18.88" shape="5666.74,8581.61 5663.68,8587.58 5658.98,8591.72 5653.20,8592.95"/>
    </edge>
    <edge id=":380424589_26" function="internal">
        <lane id=":380424589_26_0" index="0" allow="pedestrian" speed="5.98" length="6.75" width="3.00" shape="5653.91,8573.36 5656.10,8573.25 5657.74,8572.74 5658.83,8571.83 5659.37,8570.52"/>
    </edge>
    <edge id=":380424589_27" function="internal">
        <lane id=":380424589_27_0" index="0" allow="pedestrian" speed="13.89" length="28.88" width="3.00" shape="5653.91,8573.36 5662.40,8574.27 5668.11,8575.80 5673.83,8577.30 5682.31,8578.13"/>
    </edge>
    <edge id=":380424589_28" function="internal">
        <lane id=":380424589_28_0" index="0" allow="bicycle" speed="7.76" length="5.46" width="4.00" shape="5653.80,8576.36 5657.39,8576.10 5659.12,8575.43"/>
    </edge>
    <edge id=":380424589_29" function="internal">
        <lane id=":380424589_29_0" index="0" allow="bicycle" speed="13.89" length="28.83" width="2.00" shape="5653.80,8576.36 5662.29,8577.19 5668.03,8578.55 5673.76,8579.88 5682.25,8580.63"/>
    </edge>
    <edge id=":380424589_30" function="internal">
        <lane id=":380424589_30_0" index="0" allow="bicycle" speed="13.38" length="33.22" shape="5653.80,8576.36 5659.43,8579.95 5665.79,8588.29 5671.15,8598.24 5672.55,8602.78"/>
    </edge>
    <edge id=":380424589_31" function="internal">
        <lane id=":380424589_31_0" index="0" disallow="pedestrian" speed="9.18" length="4.85" shape="5653.70,8579.20 5658.54,8578.83"/>
    </edge>
    <edge id=":380424589_32" function="internal">
        <lane id=":380424589_32_0" index="0" disallow="pedestrian" speed="13.89" length="28.72" shape="5653.60,8581.90 5682.16,8584.23"/>
        <lane id=":380424589_32_1" index="1" disallow="pedestrian" speed="13.89" length="28.72" shape="5653.51,8584.60 5682.08,8587.43"/>
        <lane id=":380424589_32_2" index="2" disallow="pedestrian" speed="13.89" length="28.72" shape="5653.41,8587.30 5682.00,8590.62"/>
    </edge>
    <edge id=":380424589_35" function="internal">
        <lane id=":380424589_35_0" index="0" disallow="pedestrian" speed="11.39" length="22.84" shape="5653.31,8590.00 5660.25,8591.27 5665.44,8594.53 5668.88,8599.77 5669.66,8603.07"/>
    </edge>
    <edge id=":380424589_49" function="internal">
        <lane id=":380424589_49_0" index="0" allow="bicycle" speed="7.76" length="6.50" width="4.00" shape="5659.12,8575.43 5660.11,8575.05 5661.95,8573.19 5662.92,8570.53"/>
    </edge>
    <edge id=":380424589_50" function="internal">
        <lane id=":380424589_50_0" index="0" allow="bicycle" speed="13.38" length="4.08" shape="5672.55,8602.78 5673.76,8606.68"/>
    </edge>
    <edge id=":380424589_51" function="internal">
        <lane id=":380424589_51_0" index="0" disallow="pedestrian" speed="9.18" length="12.32" shape="5658.54,8578.83 5658.74,8578.82 5662.57,8577.24 5665.18,8574.49 5666.57,8570.54"/>
    </edge>
    <edge id=":380424589_52" function="internal">
        <lane id=":380424589_52_0" index="0" disallow="pedestrian" speed="11.39" length="4.03" shape="5669.66,8603.07 5670.58,8607.00"/>
    </edge>
    <edge id=":380424589_c0" function="crossing" crossingEdges="gneE516 gneE515">
        <lane id=":380424589_c0_0" index="0" allow="pedestrian" speed="1.00" length="17.80" width="4.00" shape="5675.15,8604.53 5657.44,8606.30"/>
    </edge>
    <edge id=":380424589_c1" function="crossing" crossingEdges="gneE464 chengfu_in">
        <lane id=":380424589_c1_0" index="0" allow="pedestrian" speed="1.00" length="22.20" width="4.00" shape="5680.28,8579.58 5679.72,8601.77"/>
    </edge>
    <edge id=":380424589_c2" function="crossing" crossingEdges="gneE44 239166839.408">
        <lane id=":380424589_c2_0" index="0" allow="pedestrian" speed="1.00" length="17.76" width="4.00" shape="5660.61,8572.16 5678.35,8572.90"/>
    </edge>
    <edge id=":380424589_c3" function="crossing" crossingEdges="gneE462 gneE461.204">
        <lane id=":380424589_c3_0" index="0" allow="pedestrian" speed="1.00" length="24.90" width="4.00" shape="5654.96,8599.81 5655.86,8574.93"/>
    </edge>
    <edge id=":380424589_w0" function="walkingarea">
        <lane id=":380424589_w0_0" index="0" allow="pedestrian" speed="1.00" length="5.75" width="5.00" shape="5652.96,8599.74 5652.78,8604.74 5654.65,8608.58 5657.64,8608.29 5657.28,8605.71 5656.75,8603.60 5656.05,8601.95 5655.19,8600.75 5654.16,8600.02"/>
    </edge>
    <edge id=":380424589_w1" function="walkingarea">
        <lane id=":380424589_w1_0" index="0" allow="pedestrian" speed="1.00" length="4.69" width="4.00" shape="5675.35,8606.52 5678.34,8606.23 5681.64,8604.82 5681.72,8601.82 5679.64,8601.91 5677.97,8602.27 5676.70,8602.91 5675.84,8603.84 5675.39,8605.04"/>
    </edge>
    <edge id=":380424589_w2" function="walkingarea">
        <lane id=":380424589_w2_0" index="0" allow="pedestrian" speed="1.00" length="5.97" width="4.00" shape="5682.28,8579.63 5682.35,8576.63 5681.75,8570.85 5678.80,8570.34 5678.44,8570.90 5678.38,8573.55 5678.43,8575.70 5678.84,8577.39 5679.62,8578.60 5680.77,8579.35"/>
    </edge>
    <edge id=":380424589_w3" function="walkingarea">
        <lane id=":380424589_w3_0" index="0" allow="pedestrian" speed="1.00" length="4.78" width="4.00" shape="5660.69,8570.16 5660.85,8570.78 5657.89,8570.26 5653.97,8571.86 5653.86,8574.86 5655.79,8574.79 5657.42,8574.44 5658.75,8573.80 5659.78,8572.88 5660.52,8571.68"/>
    </edge>
    <edge id=":528891039_0" function="internal">
        <lane id=":528891039_0_0" index="0" allow="pedestrian" speed="13.89" length="15.25" width="2.00" shape="5308.02,8006.83 5307.52,8002.54 5306.42,7999.70 5305.32,7996.85 5304.82,7992.57"/>
        <lane id=":528891039_0_1" index="1" allow="bicycle" speed="13.89" length="15.25" width="2.00" shape="5310.02,8006.83 5309.52,8002.54 5308.42,7999.70 5307.32,7996.85 5306.82,7992.57"/>
        <lane id=":528891039_0_2" index="2" disallow="pedestrian" speed="13.89" length="15.25" shape="5312.62,8006.83 5312.12,8002.54 5311.02,7999.70 5309.92,7996.85 5309.42,7992.57"/>
        <lane id=":528891039_0_3" index="3" disallow="pedestrian" speed="13.89" length="15.25" shape="5312.62,8006.83 5312.93,8002.57 5313.62,7999.70 5314.31,7996.82 5314.62,7992.57"/>