<configuration>
	<input>
	    <net-file value="grid-map.net.xml"/>
	    <route-files value="grid-map-traffic_VehicelOnly_200.rou.xml"/>
    </input>
    <time>
	    <begin value ="0"/>
	    <step-length value ="1"/>
	</time>
	    <lanechange.duration value ="3"/>
</configuration>